INIT MASTER(S)
NASTRAN SYSTEM(442)=-1,SYSTEM(319)=1
ID FEMAP,FEMAP
SOL SESTATIC
CEND
  TITLE = Beam Test
  ECHO = NONE
  DISPLACEMENT(PLOT) = ALL
  SPCFORCE(PLOT) = ALL
  OLOAD(PLOT) = ALL
  FORCE(PLOT,CORNER) = ALL
  STRESS(PLOT,CORNER) = ALL
BEGIN BULK
$ ***************************************************************************
$   Written by : Femap
$   Version    : 2025.3.31
$   Translator : Simcenter Nastran
$   From Model : 
$   Date       : Wed Apr 20 10:23:42 2022
$   Output To  : n/a
$ ***************************************************************************
$
PARAM,PRGPST,YES
PARAM,POST,-1
PARAM,OGEOM,NO
PARAM,AUTOSPC,YES
PARAM,K6ROT,100.
PARAM,GRDPNT,0
CORD2C         1       0      0.      0.      0.      0.      0.      1.+FEMAPC1
+FEMAPC1      1.      0.      1.        
CORD2S         2       0      0.      0.      0.      0.      0.      1.+FEMAPC2
+FEMAPC2      1.      0.      1.        
$ Femap Constraint Set 1 : Case 1
SPC1           1  123456       1
$ Femap Property 1 : Base
PBAR           1       1     .01 8.33e-6 8.33e-6 1.66e-5      0.        +       
+             0.      0.      0.      0.      0.      0.      0.      0.+       
+                             0.
$ Femap Material 1 : Aluminum
MAT1           1   7.+10              .3   2700.      0.      0.        +       
+          2.7+8             
GRID,1, ,0.0,0.0,0.0   
$ Segment 1 (Z-axis extension)
GRID,2, ,0.0,0.0,0.2
GRID,3, ,0.0,0.0,0.4
GRID,4, ,0.0,0.0,0.6
GRID,5, ,0.0,0.0,0.8
GRID,6, ,0.0,0.0,1.0
$ Femap Property Base
CBAR,1,1,1,2,0,0,1
CBAR,2,1,2,3,0,0,1
CBAR,3,1,3,4,0,0,1
CBAR,4,1,4,5,0,0,1
CBAR,5,1,5,6,0,0,1
ENDDATA e0194509
